*HEADING
Abaqus DataFile Version 6.14
written by meshio v5.0.0
*NODE
1, 2.3096374511718750e+01, 1.4711978912353516e+01, 9.0465583801269531e+00
2, 2.3081378936767578e+01, 2.0551006317138672e+01, 1.7085742950439453e+01
3, 2.3220205307006836e+01, 2.0475606918334961e+01, 1.7134374618530273e+01
4, 2.1026300430297852e+01, 2.1331220626831055e+01, 1.6427312850952148e+01
5, 2.3091293334960938e+01, 2.0521038055419922e+01, 1.7056585311889648e+01
6, 1.0265078544616699e+01, 3.0647321701049805e+01, 2.7934883117675781e+01
7, 2.4956657409667969e+01, 2.2092453002929688e+01, 1.8112293243408203e+01
8, 2.1904495239257812e+01, 1.5165295600891113e+01, 8.6892433166503906e+00
9, 2.1803577423095703e+01, 2.0969367980957031e+01, 1.5419188499450684e+01
10, 2.2981285095214844e+01, 2.0565326690673828e+01, 1.7072290420532227e+01
11, 2.3054367065429688e+01, 2.0579019546508789e+01, 1.7216363906860352e+01
12, 2.4516077041625977e+01, 1.9048049926757812e+01, 1.5185155868530273e+01
13, 2.3796756744384766e+01, 2.5163482666015625e+01, 1.6319187164306641e+01
14, 3.2251533508300781e+01, 2.2803115844726562e+01, 1.7126358032226562e+01
15, 2.0080335617065430e+01, 1.7383398056030273e+01, 1.8937492370605469e+01
16, 2.1353799819946289e+01, 2.4819353103637695e+01, 2.8993900299072266e+01
17, 1.4406399726867676e+01, 2.3980062484741211e+01, 2.2636257171630859e+01
18, 2.6766191482543945e+01, 2.2250675201416016e+01, 1.6321844100952148e+01
19, 3.4741725921630859e+01, 5.1600570678710938e+00, 2.1317089080810547e+01
20, 3.1061918258666992e+01, 1.6259105682373047e+01, 2.8254386901855469e+01
** ... 1127 like lines cut
*ELEMENT, TYPE=C3D4
1,12,657,3,667
2,1046,958,1092,420
3,201,92,215,601
4,945,366,944,368
5,283,605,633,635
6,931,938,718,21
7,38,3,7,657
8,657,665,18,658
9,661,666,18,659
10,34,884,881,888
11,1080,968,235,64
12,1036,956,1037,100
13,473,472,437,470
14,531,876,865,1147
15,283,605,635,606
16,323,798,322,715
17,807,1095,343,934
18,179,443,815,814
19,1059,958,1046,420
20,205,851,213,92
** ... 302 like lines cut
*MATERIAL, NAME=Material1
*ELASTIC
18000.0, 0.3
*END MATERIAL
