*HEADING
Abaqus DataFile Version 6.14
written by meshio v5.0.0
*NODE
1, 2.3096374511718750e+01, 1.4711978912353516e+01, 9.0465583801269531e+00
2, 2.3081378936767578e+01, 2.0551006317138672e+01, 1.7085742950439453e+01
3, 2.4064130783081055e+01, 1.9622497558593750e+01, 1.7872150421142578e+01
4, 2.1026300430297852e+01, 2.1331220626831055e+01, 1.6427312850952148e+01
5, 2.3091293334960938e+01, 2.0521038055419922e+01, 1.7056585311889648e+01
6, 1.0265078544616699e+01, 3.0647321701049805e+01, 2.7934883117675781e+01
7, 2.3190563201904297e+01, 2.0466802597045898e+01, 1.7124700546264648e+01
8, 2.1904495239257812e+01, 1.5165295600891113e+01, 8.6892433166503906e+00
9, 2.1803577423095703e+01, 2.0969367980957031e+01, 1.5419188499450684e+01
10, 2.2981285095214844e+01, 2.0565326690673828e+01, 1.7072290420532227e+01
11, 2.3054367065429688e+01, 2.0579019546508789e+01, 1.7216363906860352e+01
12, 2.4516077041625977e+01, 1.9048049926757812e+01, 1.5185155868530273e+01
13, 2.3796756744384766e+01, 2.5163482666015625e+01, 1.6319187164306641e+01
14, 3.2251533508300781e+01, 2.2803115844726562e+01, 1.7126358032226562e+01
15, 2.0080335617065430e+01, 1.7383398056030273e+01, 1.8937492370605469e+01
16, 2.1353799819946289e+01, 2.4819353103637695e+01, 2.8993900299072266e+01
17, 1.4406399726867676e+01, 2.3980062484741211e+01, 2.2636257171630859e+01
18, 2.6766191482543945e+01, 2.2250675201416016e+01, 1.6321844100952148e+01
19, 3.4741725921630859e+01, 5.1600570678710938e+00, 2.1317089080810547e+01
20, 3.1061918258666992e+01, 1.6259105682373047e+01, 2.8254386901855469e+01
** ... 1073 like lines cut
*ELEMENT, TYPE=C3D4
1,649,317,110,642
2,679,1045,704,947
3,1066,71,528,527
4,31,716,831,730
5,1018,1026,697,81
6,639,134,646,1074
7,456,554,207,552
8,867,868,245,869
9,943,1007,1064,386
10,637,486,1001,613
11,842,844,324,843
12,798,51,583,27
13,567,634,986,1000
14,227,912,904,913
15,485,490,489,132
16,170,884,882,883
17,587,556,586,374
18,195,505,504,468
19,485,488,489,490
20,677,703,704,788
** ... 278 like lines cut
*MATERIAL, NAME=Material1
*ELASTIC
18000.0, 0.3
*END MATERIAL
